
     RDKit          3D

 56 58  0  0  0  0  0  0  0  0999 V2000
   -3.8960    3.1683   -0.4537 C   0  0  0  0  0  0  0  0  0  0  0  0
   -3.1548    2.5545   -1.4507 C   0  0  0  0  0  0  0  0  0  0  0  0
   -2.7912    1.2101   -1.3366 C   0  0  0  0  0  0  0  0  0  0  0  0
   -3.1962    0.5306   -0.2052 C   0  0  0  0  0  0  0  0  0  0  0  0
   -2.8477   -0.9009   -0.0134 C   0  0  0  0  0  0  0  0  0  0  0  0
   -2.0440   -1.0993    1.2373 C   0  0  0  0  0  0  0  0  0  0  0  0
   -3.9332    1.1501    0.7808 C   0  0  0  0  0  0  0  0  0  0  0  0
   -4.3024    2.4784    0.6863 C   0  0  0  0  0  0  0  0  0  0  0  0
    0.9148   -4.8933    0.5563 C   0  0  0  0  0  0  0  0  0  0  0  0
    0.2389   -4.4478   -0.5778 C   0  0  0  0  0  0  0  0  0  0  0  0
    0.0106   -3.0894   -0.6899 C   0  0  0  0  0  0  0  0  0  0  0  0
    0.4260   -2.2002    0.2681 C   0  0  0  0  0  0  0  0  0  0  0  0
    0.1460   -0.7087    0.0919 C   0  0  0  0  0  0  0  0  0  0  0  0
   -0.7484   -0.3165    1.2182 C   0  0  0  0  0  0  0  0  0  0  0  0
    1.0922   -2.6584    1.3819 C   0  0  0  0  0  0  0  0  0  0  0  0
    1.3354   -4.0160    1.5213 C   0  0  0  0  0  0  0  0  0  0  0  0
    5.7865    2.2561   -0.0366 C   0  0  0  0  0  0  0  0  0  0  0  0
    5.0387    2.5219   -1.1846 C   0  0  0  0  0  0  0  0  0  0  0  0
    3.6792    2.2430   -1.2150 C   0  0  0  0  0  0  0  0  0  0  0  0
    3.0932    1.6970   -0.0794 C   0  0  0  0  0  0  0  0  0  0  0  0
    1.6037    1.3803   -0.0825 C   0  0  0  0  0  0  0  0  0  0  0  0
    1.4991   -0.0861    0.0792 C   0  0  0  0  0  0  0  0  0  0  0  0
    3.8089    1.4245    1.0681 C   0  0  0  0  0  0  0  0  0  0  0  0
    5.1728    1.7073    1.0905 C   0  0  0  0  0  0  0  0  0  0  0  0
   -4.1151   -1.7395    0.0026 C   0  0  0  0  0  0  0  0  0  0  0  0
    1.0043    2.2261    0.9888 C   0  0  0  0  0  0  0  0  0  0  0  0
   -4.1754    4.1930   -0.5365 H   0  0  0  0  0  0  0  0  0  0  0  0
   -2.8418    3.0951   -2.3340 H   0  0  0  0  0  0  0  0  0  0  0  0
   -2.2126    0.7387   -2.1193 H   0  0  0  0  0  0  0  0  0  0  0  0
   -2.2670   -1.2462   -0.8743 H   0  0  0  0  0  0  0  0  0  0  0  0
   -2.6550   -0.8520    2.1351 H   0  0  0  0  0  0  0  0  0  0  0  0
   -1.8448   -2.1995    1.3027 H   0  0  0  0  0  0  0  0  0  0  0  0
   -4.2410    0.6028    1.6586 H   0  0  0  0  0  0  0  0  0  0  0  0
   -4.8792    2.9512    1.4649 H   0  0  0  0  0  0  0  0  0  0  0  0
    1.0855   -5.9550    0.6299 H   0  0  0  0  0  0  0  0  0  0  0  0
   -0.0961   -5.1434   -1.3457 H   0  0  0  0  0  0  0  0  0  0  0  0
   -0.5157   -2.7669   -1.5785 H   0  0  0  0  0  0  0  0  0  0  0  0
   -0.3895   -0.6136   -0.8557 H   0  0  0  0  0  0  0  0  0  0  0  0
   -0.2593   -0.4691    2.1930 H   0  0  0  0  0  0  0  0  0  0  0  0
   -1.0360    0.7667    1.0429 H   0  0  0  0  0  0  0  0  0  0  0  0
    1.4323   -1.9895    2.1533 H   0  0  0  0  0  0  0  0  0  0  0  0
    1.8644   -4.3760    2.4064 H   0  0  0  0  0  0  0  0  0  0  0  0
    6.8438    2.4737   -0.0148 H   0  0  0  0  0  0  0  0  0  0  0  0
    5.4782    2.9465   -2.0770 H   0  0  0  0  0  0  0  0  0  0  0  0
    3.0748    2.4439   -2.1051 H   0  0  0  0  0  0  0  0  0  0  0  0
    1.2388    1.6737   -1.0840 H   0  0  0  0  0  0  0  0  0  0  0  0
    2.0339   -0.5449   -0.8075 H   0  0  0  0  0  0  0  0  0  0  0  0
    2.0743   -0.4737    0.9498 H   0  0  0  0  0  0  0  0  0  0  0  0
    3.3362    1.0021    1.9356 H   0  0  0  0  0  0  0  0  0  0  0  0
    5.7405    1.4914    1.9999 H   0  0  0  0  0  0  0  0  0  0  0  0
   -4.6858   -1.4538   -0.9193 H   0  0  0  0  0  0  0  0  0  0  0  0
   -3.8447   -2.7933   -0.1386 H   0  0  0  0  0  0  0  0  0  0  0  0
   -4.7696   -1.5193    0.8559 H   0  0  0  0  0  0  0  0  0  0  0  0
    0.8926    1.7500    1.9695 H   0  0  0  0  0  0  0  0  0  0  0  0
    1.7198    3.0877    1.1870 H   0  0  0  0  0  0  0  0  0  0  0  0
    0.0772    2.7875    0.6620 H   0  0  0  0  0  0  0  0  0  0  0  0
  1  2  2  0
  2  3  1  0
  3  4  2  0
  4  5  1  0
  5  6  1  0
  4  7  1  0
  7  8  2  0
  8  1  1  0
  9 10  2  0
 10 11  1  0
 11 12  2  0
 12 13  1  0
 13 14  1  0
 12 15  1  0
 15 16  2  0
 16  9  1  0
 17 18  2  0
 18 19  1  0
 19 20  2  0
 20 21  1  0
 21 22  1  0
 20 23  1  0
 23 24  2  0
 24 17  1  0
  6 14  1  0
 13 22  1  0
  5 25  1  0
 21 26  1  0
  1 27  1  0
  2 28  1  0
  3 29  1  0
  5 30  1  0
  6 31  1  0
  6 32  1  0
  7 33  1  0
  8 34  1  0
  9 35  1  0
 10 36  1  0
 11 37  1  0
 13 38  1  0
 14 39  1  0
 14 40  1  0
 15 41  1  0
 16 42  1  0
 17 43  1  0
 18 44  1  0
 19 45  1  0
 21 46  1  0
 22 47  1  0
 22 48  1  0
 23 49  1  0
 24 50  1  0
 25 51  1  0
 25 52  1  0
 25 53  1  0
 26 54  1  0
 26 55  1  0
 26 56  1  0
M  END
$$$$
