@<TRIPOS>MOLECULE
*****
 56 58 0 0 0
SMALL
GASTEIGER

@<TRIPOS>ATOM
      1 C          -3.8960    3.1683   -0.4537 C.ar    1  UNL1       -0.0617
      2 C          -3.1548    2.5545   -1.4507 C.ar    1  UNL1       -0.0615
      3 C          -2.7912    1.2101   -1.3366 C.ar    1  UNL1       -0.0583
      4 C          -3.1962    0.5306   -0.2052 C.ar    1  UNL1       -0.0445
      5 C          -2.8477   -0.9009   -0.0134 C.3     1  UNL1       -0.0187
      6 C          -2.0440   -1.0993    1.2373 C.3     1  UNL1       -0.0459
      7 C          -3.9332    1.1501    0.7808 C.ar    1  UNL1       -0.0583
      8 C          -4.3024    2.4784    0.6863 C.ar    1  UNL1       -0.0615
      9 C           0.9148   -4.8933    0.5563 C.ar    1  UNL1       -0.0617
     10 C           0.2389   -4.4478   -0.5778 C.ar    1  UNL1       -0.0615
     11 C           0.0106   -3.0894   -0.6899 C.ar    1  UNL1       -0.0583
     12 C           0.4260   -2.2002    0.2681 C.ar    1  UNL1       -0.0443
     13 C           0.1460   -0.7087    0.0919 C.3     1  UNL1       -0.0153
     14 C          -0.7484   -0.3165    1.2182 C.3     1  UNL1       -0.0457
     15 C           1.0922   -2.6584    1.3819 C.ar    1  UNL1       -0.0583
     16 C           1.3354   -4.0160    1.5213 C.ar    1  UNL1       -0.0615
     17 C           5.7865    2.2561   -0.0366 C.ar    1  UNL1       -0.0617
     18 C           5.0387    2.5219   -1.1846 C.ar    1  UNL1       -0.0615
     19 C           3.6792    2.2430   -1.2150 C.ar    1  UNL1       -0.0583
     20 C           3.0932    1.6970   -0.0794 C.ar    1  UNL1       -0.0445
     21 C           1.6037    1.3803   -0.0825 C.3     1  UNL1       -0.0181
     22 C           1.4991   -0.0861    0.0792 C.3     1  UNL1       -0.0396
     23 C           3.8089    1.4245    1.0681 C.ar    1  UNL1       -0.0583
     24 C           5.1728    1.7073    1.0905 C.ar    1  UNL1       -0.0615
     25 C          -4.1151   -1.7395    0.0026 C.3     1  UNL1       -0.0584
     26 C           1.0043    2.2261    0.9888 C.3     1  UNL1       -0.0584
     27 H          -4.1754    4.1930   -0.5365 H       1  UNL1        0.0618
     28 H          -2.8418    3.0951   -2.3340 H       1  UNL1        0.0618
     29 H          -2.2126    0.7387   -2.1193 H       1  UNL1        0.0620
     30 H          -2.2670   -1.2462   -0.8743 H       1  UNL1        0.0346
     31 H          -2.6550   -0.8520    2.1351 H       1  UNL1        0.0271
     32 H          -1.8448   -2.1995    1.3027 H       1  UNL1        0.0271
     33 H          -4.2410    0.6028    1.6586 H       1  UNL1        0.0620
     34 H          -4.8792    2.9512    1.4649 H       1  UNL1        0.0618
     35 H           1.0855   -5.9550    0.6299 H       1  UNL1        0.0618
     36 H          -0.0961   -5.1434   -1.3457 H       1  UNL1        0.0618
     37 H          -0.5157   -2.7669   -1.5785 H       1  UNL1        0.0620
     38 H          -0.3895   -0.6136   -0.8557 H       1  UNL1        0.0349
     39 H          -0.2593   -0.4691    2.1930 H       1  UNL1        0.0271
     40 H          -1.0360    0.7667    1.0429 H       1  UNL1        0.0271
     41 H           1.4323   -1.9895    2.1533 H       1  UNL1        0.0620
     42 H           1.8644   -4.3760    2.4064 H       1  UNL1        0.0618
     43 H           6.8438    2.4737   -0.0148 H       1  UNL1        0.0618
     44 H           5.4782    2.9465   -2.0770 H       1  UNL1        0.0618
     45 H           3.0748    2.4439   -2.1051 H       1  UNL1        0.0620
     46 H           1.2388    1.6737   -1.0840 H       1  UNL1        0.0346
     47 H           2.0339   -0.5449   -0.8075 H       1  UNL1        0.0277
     48 H           2.0743   -0.4737    0.9498 H       1  UNL1        0.0277
     49 H           3.3362    1.0021    1.9356 H       1  UNL1        0.0620
     50 H           5.7405    1.4914    1.9999 H       1  UNL1        0.0618
     51 H          -4.6858   -1.4538   -0.9193 H       1  UNL1        0.0236
     52 H          -3.8447   -2.7933   -0.1386 H       1  UNL1        0.0236
     53 H          -4.7696   -1.5193    0.8559 H       1  UNL1        0.0236
     54 H           0.8926    1.7500    1.9695 H       1  UNL1        0.0236
     55 H           1.7198    3.0877    1.1870 H       1  UNL1        0.0236
     56 H           0.0772    2.7875    0.6620 H       1  UNL1        0.0236
@<TRIPOS>BOND
     1     1     2   ar
     2     2     3   ar
     3     3     4   ar
     4     4     5    1
     5     5     6    1
     6     4     7   ar
     7     7     8   ar
     8     8     1   ar
     9     9    10   ar
    10    10    11   ar
    11    11    12   ar
    12    12    13    1
    13    13    14    1
    14    12    15   ar
    15    15    16   ar
    16    16     9   ar
    17    17    18   ar
    18    18    19   ar
    19    19    20   ar
    20    20    21    1
    21    21    22    1
    22    20    23   ar
    23    23    24   ar
    24    24    17   ar
    25     6    14    1
    26    13    22    1
    27     5    25    1
    28    21    26    1
    29     1    27    1
    30     2    28    1
    31     3    29    1
    32     5    30    1
    33     6    31    1
    34     6    32    1
    35     7    33    1
    36     8    34    1
    37     9    35    1
    38    10    36    1
    39    11    37    1
    40    13    38    1
    41    14    39    1
    42    14    40    1
    43    15    41    1
    44    16    42    1
    45    17    43    1
    46    18    44    1
    47    19    45    1
    48    21    46    1
    49    22    47    1
    50    22    48    1
    51    23    49    1
    52    24    50    1
    53    25    51    1
    54    25    52    1
    55    25    53    1
    56    26    54    1
    57    26    55    1
    58    26    56    1
